data_image0
_chemical_formula_structural       Pt116H
_chemical_formula_sum              "Pt116 H1"
_cell_length_a       24.999999818359232
_cell_length_b       24.999999818359232
_cell_length_c       24.999999818359232
_cell_angle_alpha    90.0
_cell_angle_beta     90.0
_cell_angle_gamma    90.0

_space_group_name_H-M_alt    "P 1"
_space_group_IT_number       1

loop_
  _space_group_symop_operation_xyz
  'x, y, z'

loop_
  _atom_site_type_symbol
  _atom_site_label
  _atom_site_symmetry_multiplicity
  _atom_site_fract_x
  _atom_site_fract_y
  _atom_site_fract_z
  _atom_site_occupancy
  Pt  Pt1       1.0  0.768642390647041  0.8459890020650129  0.0010288725794754083  1.0000
  Pt  Pt2       1.0  0.8471020747171001  0.768079187498949  0.00041000451097894134  1.0000
  Pt  Pt3       1.0  0.8352498277069861  0.8342737533838943  0.9119412866881978  1.0000
  Pt  Pt4       1.0  0.8377445219971116  0.8376296313242768  0.08518724037893904  1.0000
  Pt  Pt5       1.0  0.768188461015743  0.0005268976918282441  0.8459133910284635  1.0000
  Pt  Pt6       1.0  0.8384839118784837  0.9155809480386423  0.8372795938137336  1.0000
  Pt  Pt7       1.0  0.846654470489848  0.0005092925317003315  0.7682134267439243  1.0000
  Pt  Pt8       1.0  0.7652639392704945  0.9219086673886172  0.9197689217010706  1.0000
  Pt  Pt9       1.0  0.7631814229833637  0.9996239262772676  0.9995132734924637  1.0000
  Pt  Pt10      1.0  0.8441782260638565  0.9207270941440323  0.9991437429537787  1.0000
  Pt  Pt11      1.0  0.844276845316573  0.9999204026314217  0.9210586997344417  1.0000
  Pt  Pt12      1.0  0.7668082549457149  0.9220079486093385  0.07857662559090875  1.0000
  Pt  Pt13      1.0  0.7683768594491118  0.0003021466181952858  0.15389954379817727  1.0000
  Pt  Pt14      1.0  0.8380938151876495  0.9150030512464435  0.1621200339339043  1.0000
  Pt  Pt15      1.0  0.8446460321912554  0.9997384739420998  0.07859914366307236  1.0000
  Pt  Pt16      1.0  0.8465030082007475  6.395440046466906e-06  0.23162203855088023  1.0000
  Pt  Pt17      1.0  0.8382728479609503  0.08483797286040139  0.8382943552291064  1.0000
  Pt  Pt18      1.0  0.7664752194672952  0.07819781550015645  0.9219328080647926  1.0000
  Pt  Pt19      1.0  0.7684938199819615  0.15366905240050258  0.9999642668917403  1.0000
  Pt  Pt20      1.0  0.8448108232564527  0.07854755953869758  0.9998329656227863  1.0000
  Pt  Pt21      1.0  0.838029333091181  0.16210219420577468  0.9150918797430889  1.0000
  Pt  Pt22      1.0  0.7666789610167755  0.0777792485171153  0.0778255056534514  1.0000
  Pt  Pt23      1.0  0.8379334449904843  0.08489459546881278  0.16195290478469002  1.0000
  Pt  Pt24      1.0  0.8380177501990967  0.16198539012892602  0.08477807163196617  1.0000
  Pt  Pt25      1.0  0.8463803493758564  0.23163895835900314  0.9999762804398277  1.0000
  Pt  Pt26      1.0  0.9150513980507948  0.8381675877801854  0.8379301869304605  1.0000
  Pt  Pt27      1.0  0.9999522955516534  0.768568204010502  0.8464349888682533  1.0000
  Pt  Pt28      1.0  0.0001843335733392997  0.8465533037811129  0.7683844320571668  1.0000
  Pt  Pt29      1.0  0.921383978128805  0.7668252825538386  0.92165717651879  1.0000
  Pt  Pt30      1.0  0.9207026134638545  0.8449082730531607  0.9996861431217197  1.0000
  Pt  Pt31      1.0  0.9997680218943146  0.7636337136986499  0.9998574019229639  1.0000
  Pt  Pt32      1.0  3.825800827796857e-05  0.844832192328608  0.9212966915241708  1.0000
  Pt  Pt33      1.0  0.9220697542697877  0.7670019184591219  0.07837460953744098  1.0000
  Pt  Pt34      1.0  0.9152761934564281  0.8380480970753172  0.16241210983202642  1.0000
  Pt  Pt35      1.0  0.00013175583295728924  0.7683650050650257  0.15381108755753456  1.0000
  Pt  Pt36      1.0  0.0001277215889279779  0.8449490741334572  0.07880666874458016  1.0000
  Pt  Pt37      1.0  0.00027132532197134964  0.846520413444874  0.23169568917941533  1.0000
  Pt  Pt38      1.0  0.9222054073867733  0.9220931498499576  0.7662273311774941  1.0000
  Pt  Pt39      1.0  0.9212066474235165  0.9996926894457672  0.8453411751003062  1.0000
  Pt  Pt40      1.0  0.9996889992417404  0.921212481275559  0.8452740356238183  1.0000
  Pt  Pt41      1.0  0.9999640373237387  0.9999587536797003  0.7634545015253478  1.0000
  Pt  Pt42      1.0  0.917675971529864  0.917855173735166  0.9188449945383577  1.0000
  Pt  Pt43      1.0  0.9211176766548702  0.9994487481119948  0.9997337517340655  1.0000
  Pt  Pt44      1.0  0.9996877942577316  0.9213113847922776  0.9998376843028207  1.0000
  Pt  Pt45      1.0  4.1801500303714264e-05  0.9999530539716589  0.9217249276992823  1.0000
  Pt  Pt46      1.0  0.9184575770355429  0.9185621036203023  0.08101528534862715  1.0000
  Pt  Pt47      1.0  0.9211573901431587  0.9998851826951658  0.15493693406971457  1.0000
  Pt  Pt48      1.0  0.999950715771642  0.921158387943166  0.15506137893061872  1.0000
  Pt  Pt49      1.0  0.9998356391068058  0.9998645048950155  0.07839669948160147  1.0000
  Pt  Pt50      1.0  0.9219085365286163  0.9219175661646819  0.23342653885599104  1.0000
  Pt  Pt51      1.0  2.0675692150221944e-05  0.9999674468397635  0.23654706572666362  1.0000
  Pt  Pt52      1.0  0.9221595285544398  0.07795768232641173  0.7667169853570518  1.0000
  Pt  Pt53      1.0  0.9151720297116713  0.1620436997813497  0.8381393833479805  1.0000
  Pt  Pt54      1.0  0.9998954601832405  0.0786231661512469  0.8449682052015962  1.0000
  Pt  Pt55      1.0  0.9999838022478823  0.15368478792061693  0.7684378055335546  1.0000
  Pt  Pt56      1.0  0.918887703690668  0.08112667378543646  0.9189941296474412  1.0000
  Pt  Pt57      1.0  0.9211989507874607  0.15504460663049685  0.9999316080075031  1.0000
  Pt  Pt58      1.0  0.9999272880034717  0.07839323081357627  1.8112800131600918e-05  1.0000
  Pt  Pt59      1.0  5.970929243382567e-05  0.15517209371142313  0.9211491481230988  1.0000
  Pt  Pt60      1.0  0.9185926884485245  0.08095915602821933  0.08109398526119896  1.0000
  Pt  Pt61      1.0  0.9150184343625554  0.16194532653263496  0.16193971471659416  1.0000
  Pt  Pt62      1.0  0.9999330994515139  0.07873120666403188  0.15504903154652902  1.0000
  Pt  Pt63      1.0  0.9998908859752073  0.1550451450465008  0.0787254137959898  1.0000
  Pt  Pt64      1.0  0.9219997041852787  0.07798319933459713  0.233363222099531  1.0000
  Pt  Pt65      1.0  0.9999632307477329  0.15367130253251896  0.23155292007837802  1.0000
  Pt  Pt66      1.0  8.627879662686989e-05  0.23168589200334413  0.8463289354634828  1.0000
  Pt  Pt67      1.0  0.9220343898375307  0.23350067841252972  0.9219841797051659  1.0000
  Pt  Pt68      1.0  5.0109452364076784e-05  0.23677573900832508  0.9999921938919433  1.0000
  Pt  Pt69      1.0  0.9220216990654384  0.23346851182429598  0.07791364795809179  1.0000
  Pt  Pt70      1.0  0.9999551156156739  0.2315117221820787  0.15361240650009103  1.0000
  Pt  Pt71      1.0  0.0848397236484141  0.8381584315801189  0.8380727722674965  1.0000
  Pt  Pt72      1.0  0.0781189863315837  0.7664738586432853  0.9219648231210252  1.0000
  Pt  Pt73      1.0  0.07875442684420059  0.8448685485768721  0.9999759922078255  1.0000
  Pt  Pt74      1.0  0.15369496604469088  0.7684189694894177  0.9999634570517345  1.0000
  Pt  Pt75      1.0  0.16200071566903737  0.8380585623113933  0.9151027961031682  1.0000
  Pt  Pt76      1.0  0.07798732641862711  0.7665436710357925  0.07804757594306487  1.0000
  Pt  Pt77      1.0  0.08496174797730069  0.8379839740028514  0.16210507518979564  1.0000
  Pt  Pt78      1.0  0.16192531842848956  0.8379864407428693  0.08487029946063626  1.0000
  Pt  Pt79      1.0  0.07801440766282387  0.9220368960375489  0.7666104127842774  1.0000
  Pt  Pt80      1.0  0.0787053340318439  0.9999536597156633  0.8449319336733327  1.0000
  Pt  Pt81      1.0  0.16204059482132713  0.9151558950835541  0.8380020107789824  1.0000
  Pt  Pt82      1.0  0.1536285474282083  5.787901642052756e-05  0.7684353590415368  1.0000
  Pt  Pt83      1.0  0.08122494120215043  0.9188568556544439  0.9188184035061645  1.0000
  Pt  Pt84      1.0  0.07850070797035716  0.999978398875843  0.00010303681674862746  1.0000
  Pt  Pt85      1.0  0.15511607318301612  0.9212261323916582  1.0038736072937749e-05  1.0000
  Pt  Pt86      1.0  0.15511785649102908  3.073808022333154e-05  0.9212206427996182  1.0000
  Pt  Pt87      1.0  0.08111670483736402  0.9187603407137427  0.08121617854208678  1.0000
  Pt  Pt88      1.0  0.078731224556032  0.9999624089797269  0.15507991965075343  1.0000
  Pt  Pt89      1.0  0.16202833317323806  0.9150506531147894  0.16199574012100124  1.0000
  Pt  Pt90      1.0  0.15511193525498607  0.9999372118475438  0.0788161860366493  1.0000
  Pt  Pt91      1.0  0.07816350609190718  0.9219314400327827  0.23350914356859123  1.0000
  Pt  Pt92      1.0  0.15366576716847874  3.2173124233758045e-05  0.2315630049664513  1.0000
  Pt  Pt93      1.0  0.07797750913855579  0.07799908797071257  0.7666037244162288  1.0000
  Pt  Pt94      1.0  0.08489209833279465  0.16206114858547646  0.8379228772304075  1.0000
  Pt  Pt95      1.0  0.16205832618545596  0.08494828516920287  0.8379873847948762  1.0000
  Pt  Pt96      1.0  0.08129435688665478  0.08132904094290677  0.9186988725332961  1.0000
  Pt  Pt97      1.0  0.0787981682085184  0.15516123043534422  2.4159656175535142e-05  1.0000
  Pt  Pt98      1.0  0.15510403470692866  0.07878829046444663  4.81624803499308e-06  1.0000
  Pt  Pt99      1.0  0.1620118666091184  0.16208872967767685  0.9150193713505621  1.0000
  Pt  Pt100     1.0  0.08118947732189276  0.0812233276221387  0.08119296995791814  1.0000
  Pt  Pt101     1.0  0.08486949478863041  0.1619527916566892  0.16194096043660322  1.0000
  Pt  Pt102     1.0  0.16194407181262582  0.08487051724863785  0.16198761344094217  1.0000
  Pt  Pt103     1.0  0.16201111442111293  0.16203075182125562  0.08490645779689897  1.0000
  Pt  Pt104     1.0  0.07796307094645089  0.07799011605864739  0.23346963126430412  1.0000
  Pt  Pt105     1.0  0.07802458555089783  0.23353657232879052  0.9219964184812548  1.0000
  Pt  Pt106     1.0  0.15369208356466993  0.23163076446694358  0.9999556635636778  1.0000
  Pt  Pt107     1.0  0.07800325887474288  0.2334529299921828  0.07799057571465073  1.0000
  Pt  Pt108     1.0  0.23159341230267222  0.8463322141275066  3.7768444274411566e-05  1.0000
  Pt  Pt109     1.0  0.23163266641095742  2.15713961567298e-05  0.8463699179277806  1.0000
  Pt  Pt110     1.0  0.23349048296045563  0.9219839510411642  0.9220178608174106  1.0000
  Pt  Pt111     1.0  0.23670480099980967  1.7452200126801243e-06  2.550408018530323e-05  1.0000
  Pt  Pt112     1.0  0.23349691137650236  0.9219487614489085  0.07801344883081691  1.0000
  Pt  Pt113     1.0  0.23159342006267228  0.9999509818316439  0.15368758797263726  1.0000
  Pt  Pt114     1.0  0.23344667395613733  0.0780346016189706  0.9220156937933948  1.0000
  Pt  Pt115     1.0  0.23149445184995324  0.15375832835315126  2.516751218285785e-05  1.0000
  Pt  Pt116     1.0  0.23347918899637357  0.07797539021454039  0.077983869822602  1.0000
  H   H1        1.0  0.7624544447180817  0.84613448401807  0.9251517333241801  1.0000
